Circuit: * Task 1 A, B, C

Direct Newton iteration for .op point succeeded.

vmax: MAX(v(vin))=0.000999954 FROM 0 TO 0.006
imax: MAX(i(vin))=1.9664e-005 FROM 0 TO 0.006
r_in: vmax/imax=50.8521


Date: Mon Apr 08 19:59:01 2024
Total elapsed time: 0.073 seconds.

tnom = 27
temp = 27
method = modified trap
totiter = 4244
traniter = 4236
tranpoints = 1869
accept = 1569
rejected = 300
matrix size = 7
fillins = 0
solver = Normal
Matrix Compiler1:      19 opcodes  0.1/[0.1]/0.1
Matrix Compiler2: off  [0.1]/0.1/0.1

