Circuit: * Task 2 C

Direct Newton iteration for .op point succeeded.

vmax: MAX(v(vtest))=0.00999954 FROM 0 TO 0.006
imax: MAX(i(vtest))=0.010329 FROM 0 TO 0.006
r_in: vmax/imax=0.968104


Date: Tue Apr 09 06:25:03 2024
Total elapsed time: 0.064 seconds.

tnom = 27
temp = 27
method = modified trap
totiter = 4891
traniter = 4887
tranpoints = 1869
accept = 1569
rejected = 300
matrix size = 8
fillins = 1
solver = Normal
Matrix Compiler1: 336 bytes object code size  0.2/0.2/[0.1]
Matrix Compiler2: 530 bytes object code size  0.2/0.2/[0.2]

