Circuit: * Task 1 A, B, C

Direct Newton iteration for .op point succeeded.

Date: Mon Apr 08 19:33:03 2024
Total elapsed time: 0.090 seconds.

tnom = 27
temp = 27
method = modified trap
totiter = 4247
traniter = 4239
tranpoints = 1869
accept = 1569
rejected = 300
matrix size = 8
fillins = 0
solver = Normal
Matrix Compiler1:      22 opcodes  0.2/[0.1]/0.1
Matrix Compiler2: 582 bytes object code size  0.1/0.1/[0.1]

