Circuit: * Task 1 A, B, C

Direct Newton iteration for .op point succeeded.

Date: Mon Apr 08 19:32:39 2024
Total elapsed time: 0.067 seconds.

tnom = 27
temp = 27
method = modified trap
totiter = 4246
traniter = 4238
tranpoints = 1869
accept = 1569
rejected = 300
matrix size = 8
fillins = 0
solver = Normal
Matrix Compiler1:      22 opcodes  0.2/[0.1]/0.1
Matrix Compiler2:      48 opcodes  0.1/[0.1]/0.2

