Circuit: * Task 2 C

Direct Newton iteration for .op point succeeded.

vmax: MAX(v(vin))=0.00999954 FROM 0 TO 0.006
imax: MAX(i(vin))=1.05833e-005 FROM 0 TO 0.006
r_in: vmax/imax=944.84


Date: Tue Apr 09 06:21:57 2024
Total elapsed time: 0.068 seconds.

tnom = 27
temp = 27
method = modified trap
totiter = 3760
traniter = 3756
tranpoints = 1873
accept = 1572
rejected = 301
matrix size = 6
fillins = 0
solver = Normal
Matrix Compiler1:      13 opcodes  0.1/[0.1]/0.1
Matrix Compiler2: off  [0.1]/0.2/0.1

