Circuit: * Task 2 A, B

Direct Newton iteration for .op point succeeded.

Date: Tue Apr 09 06:02:07 2024
Total elapsed time: 0.065 seconds.

tnom = 27
temp = 27
method = modified trap
totiter = 3760
traniter = 3756
tranpoints = 1873
accept = 1572
rejected = 301
matrix size = 6
fillins = 0
solver = Normal
Matrix Compiler1: 218 bytes object code size  0.1/0.1/[0.1]
Matrix Compiler2: off  [0.1]/0.1/0.1

